# created with PyMOL 3.1.3
@<TRIPOS>MOLECULE
4WHZ
58 62 1                 
SMALL
USER_CHARGES
@<TRIPOS>ATOM
1	 CL1	8.350	92.432	140.622	Cl	1	3NL501	0.000	
2	 C02	8.151	93.485	142.037	C.2	1	3NL501	0.000	
3	 C03	9.014	93.369	143.126	C.2	1	3NL501	0.000	
4	 C04	8.847	94.258	144.226	C.2	1	3NL501	0.000	
5	 C05	7.801	95.181	144.220	C.2	1	3NL501	0.000	
6	 C06	6.906	95.228	143.169	C.2	1	3NL501	0.000	
7	 C07	7.166	94.436	141.986	C.2	1	3NL501	0.000	
8	 N08	6.231	94.483	140.919	N.pl3	1	3NL501	0.000	
9	 C09	5.752	95.714	140.361	C.2	1	3NL501	0.000	
10	 O10	4.773	95.680	139.600	O.2	1	3NL501	0.000	
11	 N11	6.448	96.981	140.644	N.pl3	1	3NL501	0.000	
12	 C12	6.036	98.286	140.237	C.2	1	3NL501	0.000	
13	 C13	6.666	99.452	140.577	C.2	1	3NL501	0.000	
14	 N14	5.901	100.464	140.137	N.2	1	3NL501	0.000	
15	 N15	4.838	99.967	139.501	N.2	1	3NL501	0.000	
16	 C16	4.844	98.636	139.611	C.2	1	3NL501	0.000	
17	 C17	3.796	100.653	138.960	C.2	1	3NL501	0.000	
18	 C18	3.092	100.152	137.847	C.2	1	3NL501	0.000	
19	 C19	1.930	100.804	137.408	C.2	1	3NL501	0.000	
20	 C20	1.519	102.002	137.998	C.2	1	3NL501	0.000	
21	 C21	2.217	102.494	139.110	C.2	1	3NL501	0.000	
22	 C22	3.324	101.805	139.606	C.2	1	3NL501	0.000	
23	 C23	1.721	103.740	139.851	C.2	1	3NL501	0.000	
24	 O24	0.535	103.968	139.919	O.2	1	3NL501	0.000	
25	 N25	2.688	104.544	140.446	N.pl3	1	3NL501	0.000	
26	 C26	2.408	105.742	141.207	C.2	1	3NL501	0.000	
27	 C27	1.346	105.977	142.084	C.2	1	3NL501	0.000	
28	 N28	1.531	107.195	142.628	N.2	1	3NL501	0.000	
29	 N29	2.700	107.719	142.176	N.2	1	3NL501	0.000	
30	 C30	3.252	106.838	141.297	C.2	1	3NL501	0.000	
31	 C31	3.245	109.039	142.532	C.3	1	3NL501	0.000	
32	 C32	2.381	110.232	142.080	C.3	1	3NL501	0.000	
33	 C33	2.120	110.964	143.167	C.3	1	3NL501	0.000	
34	 N34	3.165	110.489	144.297	N.3	1	3NL501	0.000	
35	 C35	3.348	109.207	144.079	C.3	1	3NL501	0.000	
36	H031	9.745	92.752	143.109	 H	1	3NL501	0.000	
37	H041	9.453	94.204	144.996	 H	1	3NL501	0.000	
38	H051	7.652	95.772	145.022	 H	1	3NL501	0.000	
39	H061	6.187	95.926	143.166	 H	1	3NL501	0.000	
40	H081	5.760	93.737	140.746	 H	1	3NL501	0.000	
41	H111	7.139	96.983	141.317	 H	1	3NL501	0.000	
42	H131	7.533	99.535	141.047	 H	1	3NL501	0.000	
43	H161	4.172	98.034	139.280	 H	1	3NL501	0.000	
44	H181	3.370	99.343	137.419	 H	1	3NL501	0.000	
45	H191	1.452	100.465	136.572	 H	1	3NL501	0.000	
46	H201	0.751	102.451	137.685	 H	1	3NL501	0.000	
47	H221	3.788	102.129	140.407	 H	1	3NL501	0.000	
48	H251	3.564	104.321	140.358	 H	1	3NL501	0.000	
49	H271	0.568	105.373	142.241	 H	1	3NL501	0.000	
50	H301	4.079	106.944	140.840	 H	1	3NL501	0.000	
51	H311	4.133	109.128	142.148	 H	1	3NL501	0.000	
52	H321	1.563	109.920	141.690	 H	1	3NL501	0.000	
53	H322	2.893	110.784	141.403	 H	1	3NL501	0.000	
54	H331	1.198	110.798	143.479	 H	1	3NL501	0.000	
55	H332	2.239	111.909	142.980	 H	1	3NL501	0.000	
56	H341	2.798	110.613	145.115	 H	1	3NL501	0.000	
57	H351	4.271	108.921	144.383	 H	1	3NL501	0.000	
58	H352	2.641	108.662	144.548	 H	1	3NL501	0.000	
@<TRIPOS>BOND
1 1 2 1
2 2 3 ar
3 2 7 ar
4 3 4 ar
5 3 36 1
6 4 5 ar
7 4 37 1
8 5 6 ar
9 5 38 1
10 6 7 ar
11 6 39 1
12 7 8 1
13 8 9 1
14 8 40 1
15 9 10 2
16 9 11 1
17 11 12 1
18 11 41 1
19 12 13 ar
20 13 14 ar
21 13 42 1
22 14 15 ar
23 15 17 1
24 12 16 ar
25 15 16 ar
26 16 43 1
27 17 18 ar
28 17 22 ar
29 18 19 ar
30 18 44 1
31 19 20 ar
32 19 45 1
33 20 21 ar
34 20 46 1
35 21 22 ar
36 22 47 1
37 21 23 1
38 23 24 2
39 23 25 1
40 25 48 1
41 25 26 1
42 26 27 ar
43 27 28 ar
44 27 49 1
45 28 29 ar
46 26 30 ar
47 29 30 ar
48 30 50 1
49 29 31 1
50 31 32 1
51 31 35 1
52 31 51 1
53 32 33 1
54 32 52 1
55 32 53 1
56 33 34 1
57 33 54 1
58 33 55 1
59 34 35 1
60 34 56 1
61 35 57 1
62 35 58 1
@<TRIPOS>SUBSTRUCTURE
1	3NL501	1	GROUP	1 A	3NL
