# created with PyMOL 3.1.3
@<TRIPOS>MOLECULE
6Y9S
29 32 1                 
SMALL
USER_CHARGES
@<TRIPOS>ATOM
1	  C1	23.120	7.704	4.333	C.3	1	OHK401	0.000	
2	  C2	21.615	7.973	4.097	C.3	1	OHK401	0.000	
3	  C3	21.403	8.620	2.724	C.3	1	OHK401	0.000	
4	  O4	22.245	9.756	2.595	O.3	1	OHK401	0.000	
5	  C5	23.642	9.467	2.715	C.3	1	OHK401	0.000	
6	  C6	23.892	9.002	4.154	C.3	1	OHK401	0.000	
7	  C7	23.282	7.099	5.721	C.3	1	OHK401	0.000	
8	  N8	24.621	7.209	6.340	N.pl3	1	OHK401	0.000	
9	  C9	24.820	7.829	7.534	C.2	1	OHK401	0.000	
10	 C10	26.150	7.806	8.141	C.2	1	OHK401	0.000	
11	 N11	26.506	8.292	9.384	N.2	1	OHK401	0.000	
12	 C12	25.811	8.921	10.378	C.2	1	OHK401	0.000	
13	 C13	26.375	9.281	11.587	C.2	1	OHK401	0.000	
14	 C14	27.766	8.962	11.731	C.2	1	OHK401	0.000	
15	 C15	28.485	8.342	10.739	C.2	1	OHK401	0.000	
16	 C16	27.834	7.980	9.545	C.2	1	OHK401	0.000	
17	 C17	28.230	7.337	8.384	C.2	1	OHK401	0.000	
18	 N18	27.198	7.231	7.584	N.2	1	OHK401	0.000	
19	 C19	25.565	9.987	12.655	C.2	1	OHK401	0.000	
20	 C20	26.135	10.493	13.845	C.2	1	OHK401	0.000	
21	 N21	25.406	11.119	14.768	N.2	1	OHK401	0.000	
22	 C22	24.107	11.322	14.643	C.2	1	OHK401	0.000	
23	 C23	23.431	10.857	13.525	C.2	1	OHK401	0.000	
24	 C24	24.163	10.189	12.535	C.2	1	OHK401	0.000	
25	 O25	22.091	11.072	13.471	O.3	1	OHK401	0.000	
26	 C26	21.285	10.937	12.299	C.3	1	OHK401	0.000	
27	 C27	21.641	11.986	11.237	C.3	1	OHK401	0.000	
28	 C28	19.860	11.172	12.764	C.3	1	OHK401	0.000	
29	 O29	23.909	8.381	8.127	O.2	1	OHK401	0.000	
@<TRIPOS>BOND
1 1 2 1
2 1 6 1
3 1 7 1
4 2 3 1
5 3 4 1
6 4 5 1
7 5 6 1
8 7 8 1
9 8 9 1
10 9 10 1
11 10 11 ar
12 10 18 ar
13 11 12 ar
14 12 13 ar
15 13 14 ar
16 14 15 ar
17 15 16 ar
18 11 16 ar
19 16 17 ar
20 17 18 ar
21 13 19 1
22 19 20 ar
23 19 24 ar
24 20 21 ar
25 21 22 ar
26 22 23 ar
27 23 24 ar
28 23 25 1
29 25 26 1
30 26 28 1
31 26 27 1
32 9 29 2
@<TRIPOS>SUBSTRUCTURE
1	OHK401	1	GROUP	1 A	OHK
